/*---------------------------------------------------------------------------*\
| =========                 |                                                 |
| \\      /  F ield         | OpenFOAM: The Open Source CFD Toolbox           |
|  \\    /   O peration     | Version:  1.2-devel                             |
|   \\  /    A nd           | Web:      http://www.openfoam.org               |
|    \\/     M anipulation  |                                                 |
\*---------------------------------------------------------------------------*/

FoamFile
{
    version 2.0;
    format ascii;

    root "/.automount/werner/Werner/bgschaid/bgschaid-foamStuff/Solver/Spray";
    case "dualInjector2D";
    instance ""0"";
    local "";

    class volScalarField;
    object p;
}

// * * * * * * * * * * * * * * * * * * * * * * * * * * * * * * * * * * * * * //

dimensions      [1 -1 -2 0 0 0 0];

internalField   uniform 100000;

boundaryField
{
    wand
    {
        type            zeroGradient;
    }
    inject2
    {
        type            zeroGradient;
    }
    inject1
    {
        type            zeroGradient;
    }
    outlet
    {
        type            totalPressure;
        p0              uniform 1e5;
        U U;
        phi phi;
        rho none;
        psi psi;
        gamma 1.4;
        value uniform 1e5;
    }
    inlet
    {
        type            zeroGradient;
    }
    frontAndBackPlanes
    {
        type            empty;
    }
}


// ************************************************************************* //
