// -*- C++ -*-
// File generated by PyFoam - sorry for the ugliness

FoamFile
{
 version 2.0;
 format ascii;
 root "/.automount/werner/Werner/bgschaid/bgschaid-foamStuff/Solver/Spray";
 case "dualInjector2D";
 instance ""      0 "" ;
 local "";
 class volScalarField;
 object epsilon;
}

dimensions [ 0 2 -3 0 0 0 0 ];
internalField uniform 1;
boundaryField
{
  obenunten
  {
    type symmetryPlane;
  }
  right
  {
    type zeroGradient;
  }
  frontAndBack
  {
    type empty;
  }
  left
  {
    type zeroGradient;
  }
}
