/*---------------------------------------------------------------------------*\
| =========                 |                                                 |
| \\      /  F ield         | OpenFOAM: The Open Source CFD Toolbox           |
|  \\    /   O peration     | Version:  1.4                                   |
|   \\  /    A nd           | Web:      http://www.openfoam.org               |
|    \\/     M anipulation  |                                                 |
\*---------------------------------------------------------------------------*/

FoamFile
{
    version         2.0;
    format          ascii;

    root            "";
    case            "";
    instance        "";
    local           "";

    class           dictionary;
    object          fvSolution;
}

// * * * * * * * * * * * * * * * * * * * * * * * * * * * * * * * * * * * * * //

solvers
{
    p GAMG
    {
        tolerance        1e-8;
        relTol           0.05;

        smoother         GaussSeidel;

        cacheAgglomeration off;

        nCellsInCoarsestLevel 20;
        agglomerator     faceAreaPair;
        mergeLevels      1;
    };

    U smoothSolver
    {
        smoother         GaussSeidel;
        nSweeps          2;
        tolerance        1e-6;
        relTol           0.1;
    };

    h PBiCG
    {
        preconditioner   DILU;
        tolerance        1e-6;
        relTol           0.1;
    };

    k smoothSolver
    {
        smoother         GaussSeidel;
        nSweeps          2;
        tolerance        1e-7;
        relTol           0.1;
    };

    epsilon smoothSolver
    {
        smoother         GaussSeidel;
        nSweeps          2;
        tolerance        1e-7;
        relTol           0.1;
    };

    Yi PBiCG
    {
        preconditioner   DILU;
        tolerance        1e-6;
        relTol           0.1;
    };
}

SIMPLE
{
    nNonOrthogonalCorrectors      1;
    pMin         pMin   [1 -1 -2 0 0 0 0] 0.9e5;
    convergence 1e-5;
}

relaxationFactors
{
    p           0.3;
    rho         0.5;
    U           0.7;
    k           0.7;
    epsilon     0.7;
    h           0.5; 
    Yi	        0.7;  // Fuer Cantera
//    Yi	        0.35; // fuer die OF-Chemie
}

// ************************************************************************* //
